/*--------------------------------*- C++ -*----------------------------------*\
| =========                 |                                                 |
| \\      /  F ield         | OpenFOAM: The Open Source CFD Toolbox           |
|  \\    /   O peration     | Version:  v2106                                 |
|   \\  /    A nd           | Website:  www.openfoam.com                      |
|    \\/     M anipulation  |                                                 |
\*---------------------------------------------------------------------------*/
FoamFile
{
    version     2.0;
    format      ascii;
    class       dictionary;
    object      turbulenceProperties;
}
// * * * * * * * * * * * * * * * * * * * * * * * * * * * * * * * * * * * * * //

simulationType      RAS;

RAS
{
    RASModel        SpalartAllmarasDNS;

	SpalartAllmarasDNSCoeffs
	{
        sigmaNut 0.66667;
        Cb1 0.1355;
        Cb2 0.622;
	}

	printCoeffs     on;
    turbulence      on;
}


LES
{
    LESModel        Smagorinsky;
    SmagorinskyCoeffs
    {
        Ce              1.048;
        Ck              0.0265463553; // Updated to give Cs = 0.065
    }

    delta           vanDriest;
    vanDriestCoeffs
    {
        delta           cubeRootVol;
        cubeRootVolCoeffs
        {
            deltaCoeff      1;
        }
        Aplus           26;
        Cdelta          0.158;
    }

    printCoeffs     on;
    turbulence      on;
}


// ************************************************************************* //
