/*--------------------------------*- C++ -*----------------------------------*\
| =========                 |                                                 |
| \\      /  F ield         | OpenFOAM: The Open Source CFD Toolbox           |
|  \\    /   O peration     | Version:  v2112                                 |
|   \\  /    A nd           | Website:  www.openfoam.com                      |
|    \\/     M anipulation  |                                                 |
\*---------------------------------------------------------------------------*/
FoamFile
{
    version     2.0;
    format      ascii;
    class       dictionary;
    object      fvSolution;
}
// * * * * * * * * * * * * * * * * * * * * * * * * * * * * * * * * * * * * * //

solvers
{
    p
    {
        solver          GAMG;
        tolerance       1e-010;
        relTol          0.1;
        smoother        GaussSeidel;
		nCellsInCoarsestLevel 20;
    }

    yPsi
    {
        solver          GAMG;
        tolerance       1e-015;
        relTol          0;
        smoother        GaussSeidel;
		nCellsInCoarsestLevel 20;
    }
    U
    {
        solver          smoothSolver;
        smoother        GaussSeidel;
		//solver          PBiCGStab;
		//preconditioner  DILU;
        tolerance       1e-10;
        relTol          0.1;
    }

    nuTilda
    {
        solver          smoothSolver;
        smoother        GaussSeidel;
        nSweeps         2;
        tolerance       1e-08;
        relTol          0.1;
    }
}

SIMPLE
{
    nNonOrthogonalCorrectors 1;

    residualControl
    {
        p               1e-5;
        U               1e-5;
        nuTilda         1e-5;
    }
}

relaxationFactors
{
    fields
    {
        p               0.3;
    }
    equations
    {
        U               0.7;
        nuTilda         0.7;
    }
}


// ************************************************************************* //
